testData/IEEE300/testCases/IEEE300Bus_modified_noHVDC_v2_scalepercent_25.raw
0,   100.00, 30, 0, 1,  60.00     / PSS(R)E 30 RAW created by rawd30  MON, NOV 23 2020  14:23
 00/00/01                      100.0  0    0
 0
     1,'1           ', 115.0000,1,     0.000,     0.000,   1,   1,1.01800,   5.5110,   1
     2,'2           ', 115.0000,1,     0.000,     0.000,   1,   1,1.03009,   7.6986,   1
     3,'3           ', 230.0000,1,     0.000,     0.000,   1,   1,0.98525,   6.3421,   1
     4,'4           ', 345.0000,1,     0.000,     0.000,   1,   1,1.01541,   3.9356,   1
     5,'5           ', 115.0000,1,     0.000,     0.000,   1,   1,1.00630,   3.8823,   1
     6,'6           ', 115.0000,1,     0.000,     0.000,   1,   1,1.02359,   6.7584,   1
     7,'7           ', 230.0000,1,     0.000,     0.000,   1,   1,0.98210,   5.7387,   1
     8,'8           ', 115.0000,1,     0.000,     0.000,   1,   1,1.01529,   0.7785,   1
     9,'9           ', 115.0000,1,     0.000,     0.000,   1,   1,0.99288,   1.4822,   1
    10,'10          ', 230.0000,1,     0.000,     0.000,   1,   1,1.02049,  -0.4224,   1
    11,'11          ', 115.0000,1,     0.000,     0.000,   1,   1,1.00209,   0.9272,   1
    12,'12          ', 230.0000,1,     0.000,     0.000,   1,   1,0.98894,   4.4851,   1
    13,'13          ', 115.0000,1,     0.000,     0.000,   1,   1,0.99403,  -2.9062,   1
    14,'14          ', 115.0000,1,     0.000,     0.000,   1,   1,0.97998,  -8.2419,   1
    15,'15          ', 115.0000,1,     0.000,     0.000,   1,   1,1.01412, -12.9670,   1
    16,'16          ', 345.0000,1,     0.000,     0.000,   1,   1,1.00672,  -5.2904,   1
    17,'17          ', 115.0000,1,     0.000,     0.000,   1,   1,1.04626, -19.0615,   1
    19,'19          ', 230.0000,1,     0.000,     0.000,   1,   1,0.97054,  -0.8327,   1
    20,'20          ', 115.0000,1,     0.000,     0.000,   1,   1,1.00098,  -5.3279,   1
    21,'21          ', 230.0000,1,     0.000,     0.000,   1,   1,0.96730,  -0.1522,   1
    22,'22          ', 115.0000,1,     0.000,     0.000,   1,   1,0.99086,  -4.6486,   1
    23,'23          ', 115.0000,1,     0.000,     0.000,   1,   1,1.04780,   2.9871,   1
    24,'24          ', 230.0000,1,     0.000,     0.000,   1,   1,1.00083,   5.5561,   1
    25,'25          ', 115.0000,1,     0.000,     0.000,   1,   1,1.01315,  -0.1585,   1
    26,'26          ', 115.0000,1,     0.000,     0.000,   1,   1,0.98189,  -4.2167,   1
    27,'27          ', 115.0000,1,     0.000,     0.000,   1,   1,0.95601,  -8.3273,   1
    33,'33          ', 115.0000,1,     0.000,     0.000,   1,   1,0.99494, -17.0056,   1
    34,'34          ', 345.0000,1,     0.000,     0.000,   1,   1,1.01344, -11.8877,   1
    35,'35          ', 115.0000,1,     0.000,     0.000,   1,   1,0.97040, -35.4973,   1
    36,'36          ', 230.0000,1,     0.000,     0.000,   1,   1,0.98281, -31.3491,   1
    37,'37          ', 115.0000,1,     0.000,     0.000,   1,   1,0.99342, -15.7790,   1
    38,'38          ', 115.0000,1,     0.000,     0.000,   1,   1,0.98986, -17.7015,   1
    39,'39          ', 345.0000,1,     0.000,     0.000,   1,   1,1.03011,  -9.1181,   1
    40,'40          ', 115.0000,1,     0.000,     0.000,   1,   1,0.99323, -17.9801,   1
    41,'41          ', 115.0000,1,     0.000,     0.000,   1,   1,1.00064, -14.8450,   1
    42,'42          ', 345.0000,1,     0.000,     0.000,   1,   1,1.01759, -11.2719,   1
    43,'43          ', 115.0000,1,     0.000,     0.000,   1,   1,0.96549, -23.6977,   1
    44,'44          ', 115.0000,1,     0.000,     0.000,   1,   1,0.97678, -24.8306,   1
    45,'45          ', 230.0000,1,     0.000,     0.000,   1,   1,0.99036, -21.3124,   1
    46,'46          ', 345.0000,1,     0.000,     0.000,   1,   1,1.00278, -17.0571,   1
    47,'47          ', 115.0000,1,     0.000,     0.000,   1,   1,0.94247, -32.2472,   1
    48,'48          ', 115.0000,1,     0.000,     0.000,   1,   1,0.97768, -22.6433,   1
    49,'49          ', 115.0000,1,     0.000,     0.000,   1,   1,1.04071,  -3.6847,   1
    51,'51          ', 115.0000,1,     0.000,     0.000,   1,   1,0.99992, -11.3933,   1
    52,'52          ', 115.0000,1,     0.000,     0.000,   1,   1,0.96501, -17.0541,   1
    53,'53          ', 115.0000,1,     0.000,     0.000,   1,   1,0.95956, -24.8696,   1
    54,'54          ', 115.0000,1,     0.000,     0.000,   1,   1,0.97247, -23.2032,   1
    55,'55          ', 115.0000,1,     0.000,     0.000,   1,   1,0.99033, -18.0873,   1
    57,'57          ', 115.0000,1,     0.000,     0.000,   1,   1,1.02281, -14.1081,   1
    58,'58          ', 115.0000,1,     0.000,     0.000,   1,   1,0.97358, -12.2389,   1
    59,'59          ', 115.0000,1,     0.000,     0.000,   1,   1,0.95897, -11.5347,   1
    60,'60          ', 230.0000,1,     0.000,     0.000,   1,   1,1.00034, -15.6860,   1
    61,'61          ', 115.0000,1,     0.000,     0.000,   1,   1,0.97538,  -9.2681,   1
    62,'62          ', 230.0000,1,     0.000,     0.000,   1,   1,1.00527,  -6.6761,   1
    63,'63          ', 115.0000,1,     0.000,     0.000,   1,   1,0.95829, -28.0120,   1
    64,'64          ', 230.0000,1,     0.000,     0.000,   1,   1,0.93757, -22.1360,   1
    69,'69          ', 115.0000,1,     0.000,     0.000,   1,   1,0.93984, -35.3390,   1
    70,'70          ', 115.0000,1,     0.000,     0.000,   1,   1,0.91930, -47.7196,   1
    71,'71          ', 115.0000,1,     0.000,     0.000,   1,   1,0.95982, -40.7862,   1
    72,'72          ', 115.0000,1,     0.000,     0.000,   1,   1,0.95750, -37.7002,   1
    73,'73          ', 115.0000,1,     0.000,     0.000,   1,   1,0.95471, -35.4528,   1
    74,'74          ', 230.0000,1,     0.000,     0.000,   1,   1,0.96768, -30.5842,   1
    76,'76          ', 115.0000,1,     0.000,     0.000,   1,   1,0.96318, -36.7797,   1
    77,'77          ', 115.0000,1,     0.000,     0.000,   1,   1,0.97640, -34.4164,   1
    78,'78          ', 115.0000,1,     0.000,     0.000,   1,   1,0.98235, -33.2668,   1
    79,'79          ', 115.0000,1,     0.000,     0.000,   1,   1,0.96792, -34.4248,   1
    80,'80          ', 115.0000,1,     0.000,     0.000,   1,   1,0.97618, -34.2173,   1
    81,'81          ', 345.0000,1,     0.000,     0.000,   1,   1,1.01026, -26.1838,   1
    84,'84          ', 115.0000,1,     0.000,     0.000,   1,   1,1.02498, -24.5008,   1
    85,'85          ', 230.0000,1,     0.000,     0.000,   1,   1,0.97854, -25.2235,   1
    86,'86          ', 230.0000,1,     0.000,     0.000,   1,   1,0.97759, -20.6302,   1
    87,'87          ', 230.0000,1,     0.000,     0.000,   1,   1,0.97473, -12.2586,   1
    88,'88          ', 230.0000,1,     0.000,     0.000,   1,   1,0.99191, -29.0627,   1
    89,'89          ', 115.0000,1,     0.000,     0.000,   1,   1,1.01726, -16.2321,   1
    90,'90          ', 115.0000,1,     0.000,     0.000,   1,   1,1.00776, -16.1733,   1
    91,'91          ', 115.0000,1,     0.000,     0.000,   1,   1,1.05199, -14.3083,   1
    92,'92          ', 115.0000,1,     0.000,     0.000,   1,   1,1.05199, -10.0908,   1
    94,'94          ', 115.0000,1,     0.000,     0.000,   1,   1,0.97914, -14.3888,   1
    97,'97          ', 115.0000,1,     0.000,     0.000,   1,   1,1.01222, -19.2531,   1
    98,'98          ', 115.0000,1,     0.000,     0.000,   1,   1,1.00000, -21.2324,   1
    99,'99          ', 115.0000,1,     0.000,     0.000,   1,   1,0.98746, -28.5580,   1
   100,'100         ', 115.0000,1,     0.000,     0.000,   1,   1,1.00081, -20.9074,   1
   102,'102         ', 115.0000,1,     0.000,     0.000,   1,   1,0.99324, -21.9118,   1
   103,'103         ', 115.0000,1,     0.000,     0.000,   1,   1,1.02110, -17.6026,   1
   104,'104         ', 115.0000,1,     0.000,     0.000,   1,   1,0.98939, -24.6667,   1
   105,'105         ', 115.0000,1,     0.000,     0.000,   1,   1,1.01116, -18.7094,   1
   107,'107         ', 115.0000,1,     0.000,     0.000,   1,   1,0.99458, -22.7186,   1
   108,'108         ', 115.0000,1,     0.000,     0.000,   1,   1,0.98999, -28.5928,   1
   109,'109         ', 115.0000,1,     0.000,     0.000,   1,   1,0.95210, -36.0017,   1
   110,'110         ', 115.0000,1,     0.000,     0.000,   1,   1,0.95233, -34.1957,   1
   112,'112         ', 115.0000,1,     0.000,     0.000,   1,   1,0.94919, -39.3782,   1
   113,'113         ', 115.0000,1,     0.000,     0.000,   1,   1,0.93566, -35.1733,   1
   114,'114         ', 115.0000,1,     0.000,     0.000,   1,   1,0.95211, -39.2460,   1
   115,'115         ', 115.0000,1,     0.000,     0.000,   2,   2,0.85588,   6.2724,   1
   116,'116         ', 115.0000,1,     0.000,     0.000,   2,   2,1.03085,  15.4255,   1
   117,'117         ', 115.0000,1,     0.000,   406.250,   2,   2,0.83804,  24.7868,   1
   118,'118         ', 115.0000,1,     0.000,     0.000,   2,   2,0.83225,  26.3424,   1
   119,'119         ', 115.0000,1,     0.000,     0.000,   2,   2,1.04331,  45.2807,   1
   120,'120         ', 115.0000,1,     0.000,    68.750,   2,   2,1.00242,  38.9134,   1
   121,'121         ', 115.0000,1,     0.000,     0.000,   2,   2,0.77956,  10.4146,   1
   122,'122         ', 115.0000,1,     0.000,     0.000,   2,   2,0.84321,   3.3203,   1
   123,'123         ', 115.0000,1,     0.000,     0.000,   2,   2,0.94942,  -2.2023,   1
   124,'124         ', 115.0000,1,     0.000,     0.000,   2,   2,1.02327,  11.3620,   1
   125,'125         ', 115.0000,1,     0.000,     0.000,   2,   2,1.01024, -14.3635,   1
   126,'126         ', 115.0000,1,     0.000,     0.000,   2,   2,0.94932,  -8.5671,   1
   127,'127         ', 230.0000,1,     0.000,     0.000,   2,   2,0.96740, -14.2224,   1
   128,'128         ', 230.0000,1,     0.000,     0.000,   2,   2,0.97998, -10.9576,   1
   129,'129         ', 230.0000,1,     0.000,     0.000,   2,   2,0.97964,  -9.9577,   1
   130,'130         ', 230.0000,1,     0.000,     0.000,   2,   2,1.00024,   4.6523,   1
   131,'131         ', 230.0000,1,     0.000,     0.000,   2,   2,0.97272,   5.4936,   1
   132,'132         ', 230.0000,1,     0.000,     0.000,   2,   2,0.98911,   2.1895,   1
   133,'133         ', 230.0000,1,     0.000,     0.000,   2,   2,0.98608, -13.8007,   1
   134,'134         ', 230.0000,1,     0.000,     0.000,   2,   2,1.00042, -12.9329,   1
   135,'135         ', 230.0000,1,     0.000,     0.000,   2,   2,0.99763, -12.9334,   1
   136,'136         ', 230.0000,1,     0.000,     0.000,   2,   2,1.03409,  -5.7180,   1
   137,'137         ', 230.0000,1,     0.000,     0.000,   2,   2,1.03614, -13.5370,   1
   138,'138         ', 230.0000,1,     0.000,     0.000,   2,   2,1.05495, -25.4030,   1
   139,'139         ', 115.0000,1,     0.000,     0.000,   2,   2,0.99908, -15.7210,   1
   140,'140         ', 230.0000,1,     0.000,     0.000,   2,   2,1.02661, -15.6530,   1
   141,'141         ', 230.0000,1,     0.000,     0.000,   2,   2,1.05099, -10.8801,   1
   142,'142         ', 230.0000,1,     0.000,     0.000,   2,   2,0.98584, -13.0888,   1
   143,'143         ', 230.0000,1,     0.000,     0.000,   2,   2,1.04347,  -3.4707,   1
   144,'144         ', 230.0000,1,     0.000,     0.000,   2,   2,1.00600,  -6.4279,   1
   145,'145         ', 230.0000,1,     0.000,     0.000,   2,   2,0.98632,  -9.6845,   1
   146,'146         ', 230.0000,1,     0.000,     0.000,   2,   2,1.05279,  -4.6570,   1
   147,'147         ', 230.0000,1,     0.000,     0.000,   2,   2,1.05280,   0.2994,   1
   148,'148         ', 230.0000,1,     0.000,     0.000,   2,   2,1.04523,  -8.4280,   1
   149,'149         ', 230.0000,1,     0.000,     0.000,   2,   2,1.07349,  -2.2282,   1
   150,'150         ', 230.0000,1,     0.000,     0.000,   2,   2,0.97266,   5.8546,   1
   151,'151         ', 230.0000,1,     0.000,     0.000,   2,   2,0.99049,   2.8922,   1
   152,'152         ', 230.0000,1,     0.000,     0.000,   2,   2,1.05350,   3.5953,   1
   153,'153         ', 230.0000,1,     0.000,     0.000,   2,   2,1.04350,   4.0823,   1
   154,'154         ', 115.0000,1,     0.000,    43.125,   2,   2,0.95991, -11.7442,   1
   155,'155         ', 230.0000,1,     0.000,     0.000,   2,   2,0.99295,  -1.4287,   1
   156,'156         ', 115.0000,1,     0.000,     0.000,   2,   2,0.96299,  -3.5184,   1
   157,'157         ', 230.0000,1,     0.000,     0.000,   2,   2,0.85681,   5.9533,   1
   158,'158         ', 230.0000,1,     0.000,     0.000,   2,   2,0.89956,   5.6408,   1
   159,'159         ', 230.0000,1,     0.000,     0.000,   2,   2,0.84387,  11.7039,   1
   160,'160         ', 230.0000,1,     0.000,     0.000,   2,   2,0.95741,   8.7274,   1
   161,'161         ', 230.0000,1,     0.000,     0.000,   2,   2,1.02609,   1.8097,   1
   162,'162         ', 230.0000,1,     0.000,     0.000,   2,   2,0.94379,  14.5042,   1
   163,'163         ', 230.0000,1,     0.000,     0.000,   2,   2,1.00978,  -7.4351,   1
   164,'164         ', 230.0000,1,     0.000,  -265.000,   2,   2,0.94100,   2.2560,   1
   165,'165         ', 230.0000,1,     0.000,     0.000,   2,   2,0.96649,  25.1564,   1
   166,'166         ', 230.0000,1,     0.000,  -128.750,   2,   2,0.97513,  30.3631,   1
   167,'167         ', 230.0000,1,     0.000,     0.000,   2,   2,0.93500, -13.1591,   1
   168,'168         ', 230.0000,1,     0.000,     0.000,   2,   2,0.98006, -10.9922,   1
   169,'169         ', 230.0000,1,     0.000,     0.000,   2,   2,0.95971, -13.1284,   1
   170,'170         ', 115.0000,1,     0.000,     0.000,   2,   2,0.92898,  -1.9116,   1
   171,'171         ', 115.0000,1,     0.000,     0.000,   2,   2,0.98286, -19.5136,   1
   172,'172         ', 115.0000,1,     0.000,     0.000,   2,   2,1.00121, -18.8566,   1
   173,'173         ', 115.0000,1,     0.000,    66.250,   2,   2,0.93071, -27.2746,   1
   174,'174         ', 115.0000,1,     0.000,     0.000,   2,   2,1.05136, -14.3148,   1
   175,'175         ', 115.0000,1,     0.000,     0.000,   2,   2,0.92921, -19.1797,   1
   176,'176         ', 115.0000,1,     0.000,     0.000,   2,   2,1.05219,  -4.1053,   1
   177,'177         ', 115.0000,1,     0.000,     0.000,   2,   2,1.00769,  -9.3051,   1
   178,'178         ', 115.0000,1,     0.000,     0.000,   2,   2,0.89641, -18.2362,   1
   179,'179         ', 115.0000,1,     0.000,    56.250,   2,   2,0.92160, -21.8007,   1
   180,'180         ', 115.0000,1,     0.000,     0.000,   2,   2,0.94772, -13.5546,   1
   181,'181         ', 230.0000,1,     0.000,     0.000,   2,   2,1.04169, -14.1883,   1
   182,'182         ', 230.0000,1,     0.000,     0.000,   2,   2,1.02781, -16.5800,   1
   183,'183         ', 115.0000,1,     0.000,     0.000,   2,   2,0.96916,  -0.1761,   1
   184,'184         ', 230.0000,1,     0.000,     0.000,   2,   2,1.02852, -11.3972,   1
   185,'185         ', 230.0000,1,     0.000,     0.000,   2,   2,1.05219,  -8.2363,   1
   186,'186         ', 230.0000,1,     0.000,     0.000,   2,   2,1.06496,  -9.4196,   1
   187,'187         ', 230.0000,1,     0.000,     0.000,   2,   2,1.06495, -10.7109,   1
   188,'188         ', 230.0000,1,     0.000,     0.000,   2,   2,1.04465, -13.3489,   1
   189,'189         ',  66.0000,1,     0.000,     0.000,   3,   3,0.98079, -35.2988,   1
   190,'190         ', 345.0000,1,     0.000,  -187.500,   3,   3,1.05507, -28.0271,   1
   191,'191         ', 230.0000,1,     0.000,     0.000,   3,   3,1.04338,  18.7198,   1
   192,'192         ', 230.0000,1,     0.000,     0.000,   3,   3,0.85581, -14.2514,   1
   193,'192         ',  66.0000,1,     0.000,     0.000,   3,   3,0.96862, -36.0270,   1
   194,'194         ', 345.0000,1,     0.000,     0.000,   3,   3,1.02985, -26.3440,   1
   195,'195         ', 345.0000,1,     0.000,     0.000,   3,   3,1.02079, -28.4203,   1
   196,'196         ', 115.0000,1,     0.000,     0.000,   3,   3,0.95254, -34.1552,   1
   197,'197         ', 115.0000,1,     0.000,     0.000,   3,   3,0.97892, -32.2296,   1
   198,'198         ', 115.0000,1,     0.000,     0.000,   3,   3,1.01498, -28.3502,   1
   199,'199         ', 115.0000,1,     0.000,     0.000,   3,   3,0.93246, -35.2329,   1
   200,'200         ', 115.0000,1,     0.000,     0.000,   3,   3,0.93580, -35.0685,   1
   201,'201         ',  66.0000,1,     0.000,     0.000,   1,   1,0.93926, -38.0429,   1
   202,'202         ',  66.0000,1,     0.000,     0.000,   3,   3,0.97400, -34.3180,   1
   203,'203         ', 115.0000,1,     0.000,     0.000,   3,   3,0.99618, -30.5471,   1
   204,'204         ',  66.0000,1,     0.000,     0.000,   3,   3,0.93827, -36.2474,   1
   205,'205         ',  66.0000,1,     0.000,     0.000,   3,   3,0.95736, -36.3181,   1
   206,'206         ',  66.0000,1,     0.000,     0.000,   3,   3,0.97642, -37.7339,   1
   207,'207         ',  66.0000,1,     0.000,     0.000,   1,   1,0.99371, -37.7361,   1
   208,'208         ',  66.0000,1,     0.000,     0.000,   3,   3,0.97338, -36.0619,   1
   209,'209         ',  66.0000,1,     0.000,     0.000,   3,   3,0.98478, -34.9947,   1
   210,'210         ', 115.0000,1,     0.000,     0.000,   3,   3,0.96570, -32.8901,   1
   211,'211         ', 115.0000,1,     0.000,     0.000,   3,   3,0.98928, -31.7484,   1
   212,'212         ', 138.0000,1,     0.000,     0.000,   3,   3,1.00065, -30.6413,   1
   213,'213         ',  16.5000,1,     0.000,     0.000,   3,   3,1.00999, -16.7931,   1
   214,'214         ', 138.0000,1,     0.000,     0.000,   3,   3,0.98758, -24.2100,   1
   215,'215         ', 138.0000,1,     0.000,     0.000,   3,   3,0.97565, -27.6320,   1
   216,'216         ', 138.0000,1,     0.000,     0.000,   3,   3,0.95794, -30.5136,   1
   217,'217         ', 138.0000,1,     0.000,     0.000,   3,   3,1.01141, -29.9827,   1
   218,'218         ', 138.0000,1,     0.000,     0.000,   3,   3,0.99731, -30.5109,   1
...
 0 /End of Bus data, Begin Load data
     1,'1 ',1,   1,   1,   112.500,    61.250,     0.000,     0.000,     0.000,     0.000,   1
     2,'1 ',1,   1,   1,    70.000,    18.750,     0.000,     0.000,     0.000,     0.000,   1
     3,'1 ',1,   1,   1,    25.000,     0.000,     0.000,     0.000,     0.000,     0.000,   1
     5,'1 ',1,   1,   1,   441.250,   162.500,     0.000,     0.000,     0.000,     0.000,   1
     6,'1 ',1,   1,   1,   150.000,    51.250,     0.000,     0.000,     0.000,     0.000,   1
     8,'1 ',1,   1,   1,    72.500,    17.500,     0.000,     0.000,     0.000,     0.000,   1
     9,'1 ',1,   1,   1,   120.000,    53.750,     0.000,     0.000,     0.000,     0.000,   1
    10,'1 ',1,   1,   1,   185.000,    41.250,     0.000,     0.000,     0.000,     0.000,   1
    11,'1 ',1,   1,   1,   103.750,    26.250,     0.000,     0.000,     0.000,     0.000,   1
    13,'1 ',1,   1,   1,    72.500,    12.500,     0.000,     0.000,     0.000,     0.000,   1
    14,'1 ',1,   1,   1,   200.000,    75.000,     0.000,     0.000,     0.000,     0.000,   1
    15,'1 ',1,   1,   1,   158.375,    28.750,     0.000,     0.000,     0.000,     0.000,   1
    17,'1 ',1,   1,   1,   701.250,   275.000,     0.000,     0.000,     0.000,     0.000,   1
    20,'1 ',1,   1,   1,   743.750,   150.000,     0.000,     0.000,     0.000,     0.000,   1
    21,'1 ',1,   1,   1,    96.250,     1.250,     0.000,     0.000,     0.000,     0.000,   1
    22,'1 ',1,   1,   1,   101.250,    28.750,     0.000,     0.000,     0.000,     0.000,   1
    23,'1 ',1,   1,   1,    26.250,     8.750,     0.000,     0.000,     0.000,     0.000,   1
    25,'1 ',1,   1,   1,    56.250,    15.000,     0.000,     0.000,     0.000,     0.000,   1
    26,'1 ',1,   1,   1,    35.000,    11.250,     0.000,     0.000,     0.000,     0.000,   1
    27,'1 ',1,   1,   1,    86.250,    16.250,     0.000,     0.000,     0.000,     0.000,   1
    33,'1 ',1,   1,   1,    68.750,     7.500,     0.000,     0.000,     0.000,     0.000,   1
    37,'1 ',1,   1,   1,   106.250,    40.000,     0.000,     0.000,     0.000,     0.000,   1
    38,'1 ',1,   1,   1,   193.750,    22.500,     0.000,     0.000,     0.000,     0.000,   1
    40,'1 ',1,   1,   1,    57.500,   -26.250,     0.000,     0.000,     0.000,     0.000,   1
    41,'1 ',1,   1,   1,   107.500,     0.000,     0.000,     0.000,     0.000,     0.000,   1
    43,'1 ',1,   1,   1,    48.750,    11.250,     0.000,     0.000,     0.000,     0.000,   1
    44,'1 ',1,   1,   1,   243.750,    36.250,     0.000,     0.000,     0.000,     0.000,   1
    47,'1 ',1,   1,   1,    72.500,    14.750,     0.000,     0.000,     0.000,     0.000,   1
    48,'1 ',1,   1,   1,    51.250,    23.750,     0.000,     0.000,     0.000,     0.000,   1
    49,'1 ',1,   1,   1,   115.000,    32.500,     0.000,     0.000,     0.000,     0.000,   1
    51,'1 ',1,   1,   1,    -6.250,     6.250,     0.000,     0.000,     0.000,     0.000,   1
    52,'1 ',1,   1,   1,    76.250,    35.000,     0.000,     0.000,     0.000,     0.000,   1
    53,'1 ',1,   1,   1,    86.250,     3.750,     0.000,     0.000,     0.000,     0.000,   1
    54,'1 ',1,   1,   1,    12.500,     1.250,     0.000,     0.000,     0.000,     0.000,   1
    55,'1 ',1,   1,   1,    27.500,    12.500,     0.000,     0.000,     0.000,     0.000,   1
    57,'1 ',1,   1,   1,   122.500,    25.000,     0.000,     0.000,     0.000,     0.000,   1
    58,'1 ',1,   1,   1,    17.500,     1.250,     0.000,     0.000,     0.000,     0.000,   1
    59,'1 ',1,   1,   1,   272.500,   132.500,     0.000,     0.000,     0.000,     0.000,   1
    61,'1 ',1,   1,   1,   283.750,   137.500,     0.000,     0.000,     0.000,     0.000,   1
    63,'1 ',1,   1,   1,    87.500,    37.500,     0.000,     0.000,     0.000,     0.000,   1
    70,'1 ',1,   1,   1,    70.000,    25.000,     0.000,     0.000,     0.000,     0.000,   1
    71,'1 ',1,   1,   1,   145.000,    47.500,     0.000,     0.000,     0.000,     0.000,   1
    72,'1 ',1,   1,   1,    71.250,    23.750,     0.000,     0.000,     0.000,     0.000,   1
    73,'1 ',1,   1,   1,   280.000,    88.750,     0.000,     0.000,     0.000,     0.000,   1
    76,'1 ',1,   1,   1,   260.000,   133.750,     0.000,     0.000,     0.000,     0.000,   1
    77,'1 ',1,   1,   1,    92.500,    35.000,     0.000,     0.000,     0.000,     0.000,   1
    79,'1 ',1,   1,   1,    60.000,    17.500,     0.000,     0.000,     0.000,     0.000,   1
    80,'1 ',1,   1,   1,    35.000,     8.750,     0.000,     0.000,     0.000,     0.000,   1
    84,'1 ',1,   1,   1,    46.250,    16.250,     0.000,     0.000,     0.000,     0.000,   1
    89,'1 ',1,   1,   1,    55.250,     0.000,     0.000,     0.000,     0.000,     0.000,   1
    90,'1 ',1,   1,   1,    82.500,     0.000,     0.000,     0.000,     0.000,     0.000,   1
    91,'1 ',1,   1,   1,    21.750,     0.000,     0.000,     0.000,     0.000,     0.000,   1
    92,'1 ',1,   1,   1,    19.750,     0.000,     0.000,     0.000,     0.000,     0.000,   1
    94,'1 ',1,   1,   1,    75.375,     0.000,     0.000,     0.000,     0.000,     0.000,   1
    97,'1 ',1,   1,   1,    49.875,     0.000,     0.000,     0.000,     0.000,     0.000,   1
    98,'1 ',1,   1,   1,    83.375,     0.000,     0.000,     0.000,     0.000,     0.000,   1
    99,'1 ',1,   1,   1,   104.375,     0.000,     0.000,     0.000,     0.000,     0.000,   1
   102,'1 ',1,   1,   1,    97.250,     0.000,     0.000,     0.000,     0.000,     0.000,   1
   103,'1 ',1,   1,   1,    40.000,     0.000,     0.000,     0.000,     0.000,     0.000,   1
   104,'1 ',1,   1,   1,    10.750,     0.000,     0.000,     0.000,     0.000,     0.000,   1
   105,'1 ',1,   1,   1,    62.000,     0.000,     0.000,     0.000,     0.000,     0.000,   1
   107,'1 ',1,   1,   1,     5.750,     0.000,     0.000,     0.000,     0.000,     0.000,   1
   108,'1 ',1,   1,   1,   140.125,     0.000,     0.000,     0.000,     0.000,     0.000,   1
   109,'1 ',1,   1,   1,    38.375,     0.000,     0.000,     0.000,     0.000,     0.000,   1
   110,'1 ',1,   1,   1,    78.750,     0.000,     0.000,     0.000,     0.000,     0.000,   1
   112,'1 ',1,   1,   1,    24.500,     0.000,     0.000,     0.000,     0.000,     0.000,   1
   113,'1 ',1,   1,   1,    32.750,     0.000,     0.000,     0.000,     0.000,     0.000,   1
   114,'1 ',1,   1,   1,    22.750,     0.000,     0.000,     0.000,     0.000,     0.000,   1
   118,'1 ',1,   2,   2,    17.625,   812.500,     0.000,     0.000,     0.000,     0.000,   1
   119,'1 ',1,   2,   2,   125.375,    43.000,     0.000,     0.000,     0.000,     0.000,   1
   121,'1 ',1,   2,   2,   668.750,    68.750,     0.000,     0.000,     0.000,     0.000,   1
   122,'1 ',1,   2,   2,   286.375,    14.750,     0.000,     0.000,     0.000,     0.000,   1
   123,'1 ',1,   2,   2,    97.500,     1.750,     0.000,     0.000,     0.000,     0.000,   1
   124,'1 ',1,   2,   2,   345.500,    74.125,     0.000,     0.000,     0.000,     0.000,   1
   125,'1 ',1,   2,   2,   643.500,   103.375,     0.000,     0.000,     0.000,     0.000,   1
   126,'1 ',1,   2,   2,    72.375,     6.375,     0.000,     0.000,     0.000,     0.000,   1
   127,'1 ',1,   2,   2,   476.000,    46.250,     0.000,     0.000,     0.000,     0.000,   1
   135,'1 ',1,   2,   2,   211.500,    52.000,     0.000,     0.000,     0.000,     0.000,   1
   136,'1 ',1,   2,   2,    69.000,    22.750,     0.000,     0.000,     0.000,     0.000,   1
   137,'1 ',1,   2,   2,   342.000,   124.750,     0.000,     0.000,     0.000,     0.000,   1
   138,'1 ',1,   2,   2,  1033.375,   169.000,     0.000,     0.000,     0.000,     0.000,   1
   139,'1 ',1,   2,   2,   743.750,   104.125,     0.000,     0.000,     0.000,     0.000,   1
   140,'1 ',1,   2,   2,   484.625,   143.375,     0.000,     0.000,     0.000,     0.000,   1
   141,'1 ',1,   2,   2,   181.250,    72.500,     0.000,     0.000,     0.000,     0.000,   1
   142,'1 ',1,   2,   2,    70.625,    30.625,     0.000,     0.000,     0.000,     0.000,   1
   143,'1 ',1,   2,   2,   111.875,    44.375,     0.000,     0.000,     0.000,     0.000,   1
   145,'1 ',1,   2,   2,    30.000,    17.500,     0.000,     0.000,     0.000,     0.000,   1
   148,'1 ',1,   2,   2,    78.750,    31.250,     0.000,     0.000,     0.000,     0.000,   1
   152,'1 ',1,   2,   2,    21.250,    11.250,     0.000,     0.000,     0.000,     0.000,   1
   154,'1 ',1,   2,   2,    87.500,     6.250,     0.000,     0.000,     0.000,     0.000,   1
   155,'1 ',1,   2,   2,   250.000,    62.500,     0.000,     0.000,     0.000,     0.000,   1
   156,'1 ',1,   2,   2,    93.750,    62.500,     0.000,     0.000,     0.000,     0.000,   1
   157,'1 ',1,   2,   2,   154.375,    30.375,     0.000,     0.000,     0.000,     0.000,   1
   159,'1 ',1,   2,   2,    41.250,    20.625,     0.000,     0.000,     0.000,     0.000,   1
   161,'1 ',1,   2,   2,    43.750,    18.750,     0.000,     0.000,     0.000,     0.000,   1
   162,'1 ',1,   2,   2,   106.250,    30.000,     0.000,     0.000,     0.000,     0.000,   1
   163,'1 ',1,   2,   2,     0.000,     0.500,     0.000,     0.000,     0.000,     0.000,   1
   167,'1 ',1,   2,   2,   374.875,   119.625,     0.000,     0.000,     0.000,     0.000,   1
   170,'1 ',1,   2,   2,   602.250,   256.250,     0.000,     0.000,     0.000,     0.000,   1
   171,'1 ',1,   2,   2,   954.500,   363.875,     0.000,     0.000,     0.000,     0.000,   1
   172,'1 ',1,   2,   2,    33.125,     0.000,     0.000,     0.000,     0.000,     0.000,   1
   173,'1 ',1,   2,   2,   204.375,    53.750,     0.000,     0.000,     0.000,     0.000,   1
   175,'1 ',1,   2,   2,   220.000,   103.750,     0.000,     0.000,     0.000,     0.000,   1
   176,'1 ',1,   2,   2,     6.250,     5.000,     0.000,     0.000,     0.000,     0.000,   1
   177,'1 ',1,   2,   2,    35.000,    15.000,     0.000,     0.000,     0.000,     0.000,   1
   178,'1 ',1,   2,   2,   534.250,   217.000,     0.000,     0.000,     0.000,     0.000,   1
   179,'1 ',1,   2,   2,    92.500,    36.250,     0.000,     0.000,     0.000,     0.000,   1
   180,'1 ',1,   2,   2,    86.875,    61.625,     0.000,     0.000,     0.000,     0.000,   1
   181,'1 ',1,   2,   2,    91.750,     0.000,     0.000,     0.000,     0.000,     0.000,   1
   182,'1 ',1,   2,   2,   300.875,   111.250,     0.000,     0.000,     0.000,     0.000,   1
   183,'1 ',1,   2,   2,    50.000,     5.000,     0.000,     0.000,     0.000,     0.000,   1
   184,'1 ',1,   2,   2,   171.000,    20.750,     0.000,     0.000,     0.000,     0.000,   1
   186,'1 ',1,   2,   2,    74.750,    30.375,     0.000,     0.000,     0.000,     0.000,   1
   187,'1 ',1,   2,   2,    74.750,    30.375,     0.000,     0.000,     0.000,     0.000,   1
   188,'1 ',1,   2,   2,   228.250,    54.500,     0.000,     0.000,     0.000,     0.000,   1
   189,'1 ',1,   3,   3,     8.750,     2.500,     0.000,     0.000,     0.000,     0.000,   1
   191,'1 ',1,   3,   3,   611.250,    66.250,     0.000,     0.000,     0.000,     0.000,   1
   192,'1 ',1,   3,   3,  1000.000,    90.000,     0.000,     0.000,     0.000,     0.000,   1
   196,'1 ',1,   3,   3,    12.500,     3.750,     0.000,     0.000,     0.000,     0.000,   1
   197,'1 ',1,   3,   3,    53.750,    17.500,     0.000,     0.000,     0.000,     0.000,   1
   198,'1 ',1,   3,   3,    80.000,    26.250,     0.000,     0.000,     0.000,     0.000,   1
   199,'1 ',1,   3,   3,    43.750,    15.000,     0.000,     0.000,     0.000,     0.000,   1
   200,'1 ',1,   3,   3,    33.750,    15.000,     0.000,     0.000,     0.000,     0.000,   1
   201,'1 ',1,   1,   1,    51.250,    17.500,     0.000,     0.000,     0.000,     0.000,   1
   202,'1 ',1,   3,   3,    47.500,    16.250,     0.000,     0.000,     0.000,     0.000,   1
   203,'1 ',1,   3,   3,    52.500,    17.500,     0.000,     0.000,     0.000,     0.000,   1
   204,'1 ',1,   3,   3,    90.000,    30.000,     0.000,     0.000,     0.000,     0.000,   1
   205,'1 ',1,   3,   3,     0.000,    -6.250,     0.000,     0.000,     0.000,     0.000,   1
   206,'1 ',1,   3,   3,    15.000,     2.500,     0.000,     0.000,     0.000,     0.000,   1
   207,'1 ',1,   1,   1,   -26.250,   -17.750,     0.000,     0.000,     0.000,     0.000,   1
   208,'1 ',1,   3,   3,     8.750,     2.500,     0.000,     0.000,     0.000,     0.000,   1
   209,'1 ',1,   3,   3,    47.500,    16.250,     0.000,     0.000,     0.000,     0.000,   1
   211,'1 ',1,   3,   3,   120.000,     8.750,     0.000,     0.000,     0.000,     0.000,   1
   214,'1 ',1,   3,   3,    27.500,    20.000,     0.000,     0.000,     0.000,     0.000,   1
   215,'1 ',1,   3,   3,    58.750,    32.500,     0.000,     0.000,     0.000,     0.000,   1
   216,'1 ',1,   3,   3,   220.000,   131.250,     0.000,     0.000,     0.000,     0.000,   1
   217,'1 ',1,   3,   3,   125.000,    93.750,     0.000,     0.000,     0.000,     0.000,   1
   218,'1 ',1,   3,   3,   163.750,   120.000,     0.000,     0.000,     0.000,     0.000,   1
   220,'1 ',1,   3,   3,   356.250,   125.000,     0.000,     0.000,     0.000,     0.000,   1
   221,'1 ',1,   3,   3,   213.750,    87.500,     0.000,     0.000,     0.000,     0.000,   1
   222,'1 ',1,   3,   3,   410.000,   235.000,     0.000,     0.000,     0.000,     0.000,   1
   223,'1 ',1,   3,   3,   535.000,   290.000,     0.000,     0.000,     0.000,     0.000,   1
   224,'1 ',1,   3,   3,   216.250,   123.750,     0.000,     0.000,     0.000,     0.000,   1
   225,'1 ',1,   3,   3,   512.500,    50.000,     0.000,     0.000,     0.000,     0.000,   1
   227,'1 ',1,   3,   3,   672.500,   461.250,     0.000,     0.000,     0.000,     0.000,   1
   228,'1 ',1,   3,   3,   278.750,   185.000,     0.000,     0.000,     0.000,     0.000,   1
   229,'1 ',1,   3,   3,   120.000,    57.500,     0.000,     0.000,     0.000,     0.000,   1
   231,'1 ',1,   3,   3,   198.750,   133.750,     0.000,     0.000,     0.000,     0.000,   1
   232,'1 ',1,   3,   3,   560.000,   178.750,     0.000,     0.000,     0.000,     0.000,   1
   233,'1 ',1,   3,   3,   505.000,   265.000,     0.000,     0.000,     0.000,     0.000,   1
   234,'1 ',1,   3,   3,   715.000,   305.000,     0.000,     0.000,     0.000,     0.000,   1
   235,'1 ',1,   3,   3,   336.250,   196.250,     0.000,     0.000,     0.000,     0.000,   1
   238,'1 ',1,   3,   3,   318.750,   186.250,     0.000,     0.000,     0.000,     0.000,   1
   243,'1 ',1,   3,   3,    10.000,     3.750,     0.000,     0.000,     0.000,     0.000,   1
   245,'1 ',1,   3,   3,    76.250,    37.500,     0.000,     0.000,     0.000,     0.000,   1
   246,'1 ',1,   3,   3,    96.250,    41.250,     0.000,     0.000,     0.000,     0.000,   1
   247,'1 ',1,   3,   3,    76.250,    37.500,     0.000,     0.000,     0.000,     0.000,   1
   248,'1 ',1,   3,   3,    36.250,    17.500,     0.000,     0.000,     0.000,     0.000,   1
   249,'1 ',1,   3,   3,    36.250,    17.500,     0.000,     0.000,     0.000,     0.000,   1
   250,'1 ',1,   3,   3,   -28.750,   -21.250,     0.000,     0.000,     0.000,     0.000,   1
   281,'1 ',1,   3,   3,   -41.375,   -36.750,     0.000,     0.000,     0.000,     0.000,   1
   319,'1 ',1,   1,   1,   144.750,   -30.000,     0.000,     0.000,     0.000,     0.000,   1
   320,'1 ',1,   1,   1,     3.000,   -15.750,     0.000,     0.000,     0.000,     0.000,   1
   322,'1 ',1,   1,   1,     3.000,    -4.875,     0.000,     0.000,     0.000,     0.000,   1
   323,'1 ',1,   1,   1,   -18.625,    33.125,     0.000,     0.000,     0.000,     0.000,   1
   324,'1 ',1,   1,   1,    30.875,    -1.500,     0.000,     0.000,     0.000,     0.000,   1
   526,'1 ',1,   1,   1,   181.625,   -43.625,     0.000,     0.000,     0.000,     0.000,   1
   528,'1 ',1,   1,   1,    35.125,   -25.625,     0.000,     0.000,     0.000,     0.000,   1
   531,'1 ',1,   1,   1,    17.500,     3.125,     0.000,     0.000,     0.000,     0.000,   1
   552,'1 ',1,   1,   1,   -13.875,    -1.750,     0.000,     0.000,     0.000,     0.000,   1
   562,'1 ',1,   1,   1,    63.125,    21.750,     0.000,     0.000,     0.000,     0.000,   1
   609,'1 ',1,   1,   1,    37.000,     0.750,     0.000,     0.000,     0.000,     0.000,   1
   664,'1 ',1,   3,   3,  -142.125,    95.875,     0.000,     0.000,     0.000,     0.000,   1
  1190,'1 ',1,   1,   1,   125.387,    36.463,     0.000,     0.000,     0.000,     0.000,   1
  1200,'1 ',1,   1,   1,  -125.000,    42.712,     0.000,     0.000,     0.000,     0.000,   1
  9003,'1 ',1,   1,   9,     3.388,     1.175,     0.000,     0.000,     0.000,     0.000,   1
  9004,'1 ',1,   1,   9,     1.075,     0.350,     0.000,     0.000,     0.000,     0.000,   1
  9021,'1 ',1,   1,   9,     5.938,     1.950,     0.000,     0.000,     0.000,     0.000,   1
  9022,'1 ',1,   1,   9,     1.912,     0.662,     0.000,     0.000,     0.000,     0.000,   1
  9024,'1 ',1,   1,   9,     1.688,     0.587,     0.000,     0.000,     0.000,     0.000,   1
  9025,'1 ',1,   1,   9,     0.562,     0.200,     0.000,     0.000,     0.000,     0.000,   1
  9026,'1 ',1,   1,   9,     0.562,     0.200,     0.000,     0.000,     0.000,     0.000,   1
  9031,'1 ',1,   1,   9,     2.300,     0.800,     0.000,     0.000,     0.000,     0.000,   1
  9032,'1 ',1,   1,   9,     1.737,     0.600,     0.000,     0.000,     0.000,     0.000,   1
  9033,'1 ',1,   1,   9,     2.362,     0.812,     0.000,     0.000,     0.000,     0.000,   1
  9034,'1 ',1,   1,   9,     1.938,     0.675,     0.000,     0.000,     0.000,     0.000,   1
  9035,'1 ',1,   1,   9,     2.075,     0.725,     0.000,     0.000,     0.000,     0.000,   1
  9036,'1 ',1,   1,   9,     3.787,     1.250,     0.000,     0.000,     0.000,     0.000,   1
  9037,'1 ',1,   1,   9,     2.325,     0.800,     0.000,     0.000,     0.000,     0.000,   1
  9038,'1 ',1,   1,   9,     3.225,     1.113,     0.000,     0.000,     0.000,     0.000,   1
  9041,'1 ',1,   1,   9,     1.262,     0.438,     0.000,     0.000,     0.000,     0.000,   1
  9042,'1 ',1,   1,   9,     1.013,     0.350,     0.000,     0.000,     0.000,     0.000,   1
  9043,'1 ',1,   1,   9,     2.000,     0.650,     0.000,     0.000,     0.000,     0.000,   1
  9052,'1 ',1,   1,   9,    37.500,    28.750,     0.000,     0.000,     0.000,     0.000,   1
  9071,'1 ',1,   1,   9,     1.275,     0.438,     0.000,     0.000,     0.000,     0.000,   1
  9072,'1 ',1,   1,   9,     1.275,     0.438,     0.000,     0.000,     0.000,     0.000,   1
  9121,'1 ',1,   1,   9,     4.750,     1.562,     0.000,     0.000,     0.000,     0.000,   1
  9533,'1 ',1,   1,   9,     1.488,     0.512,     0.000,     0.000,     0.000,     0.000,   1
 0 /End of Load data, Begin Generator data
 10000,'1 ',    -6.250,   103.671,   114.039,   -10.000,1.01530,     0,   124.632,   0.00140,   0.12000,   0.00000,   0.00000,1.00000,1,  100.0,  9999.000, -9999.000,   1,1.0000
 10001,'1 ',    -6.250,    51.382,    56.520,   -20.000,1.02050,     0,    62.112,   0.00140,   0.12000,   0.00000,   0.00000,1.00000,1,  100.0,  9999.000, -9999.000,   1,1.0000
 10002,'1 ',   -12.500,   161.003,   177.104,   -20.000,1.00100,     0,   193.786,   0.00140,   0.12000,   0.00000,   0.00000,1.00000,1,  100.0,  9999.000, -9999.000,   1,1.0000
 10003,'1 ',     0.000,    89.130,    98.042,   -25.000,0.95830,     0,   106.955,   0.00140,   0.12000,   0.00000,   0.00000,1.00000,1,  100.0,  9999.000, -9999.000,   1,1.0000
 10004,'1 ',     0.000,   175.844,   193.428,    12.000,0.96320,     0,   211.013,   0.00140,   0.12000,   0.00000,   0.00000,1.00000,1,  100.0,  9999.000, -9999.000,   1,1.0000
 10005,'1 ',   472.500,   170.332,   240.000,  -240.000,1.02500,     0,   835.000,   0.00190,   0.33900,   0.00000,   0.00000,1.00000,1,  100.0,  9999.000, -9999.000,   1,1.0000
 10006,'1 ',   195.300,    61.551,    96.000,   -11.000,1.05200,     0,   270.000,   0.00160,   0.18500,   0.00000,   0.00000,1.00000,1,  100.0,  9999.000, -9999.000,   1,1.0000
 10007,'1 ',   365.400,    57.430,   153.000,  -153.000,1.05200,     0,   410.000,   0.00190,   0.22840,   0.00000,   0.00000,1.00000,1,  100.0,  9999.000, -9999.000,   1,1.0000
 10008,'1 ',    85.680,     3.431,    56.000,   -30.000,1.00000,     0,   125.000,   0.00400,   0.13400,   0.00000,   0.00000,1.00000,1,  100.0,  9999.000, -9999.000,   1,1.0000
 10009,'1 ',   147.420,    76.043,    77.000,   -24.000,0.99000,     0,   270.000,   0.00160,   0.18500,   0.00000,   0.00000,1.00000,1,  100.0,  9999.000, -9999.000,   1,1.0000
 10010,'1 ',  2431.800,  1938.608,  2200.000,  -500.000,1.04350,     0,  3731.865,   0.00100,   0.19300,   0.00000,   0.00000,1.00000,1,  100.0,  9999.000, -9999.000,   1,1.0000
 10011,'1 ',   302.400,   340.575,   374.604,   -60.000,1.02330,     0,   546.520,   0.00190,   0.22840,   0.00000,   0.00000,1.00000,1,  100.0,  9999.000, -9999.000,   1,1.0000
 10012,'1 ',     0.000,   611.523,   672.644,   -25.000,1.01030,     0,   733.793,   0.00140,   0.12000,   0.00000,   0.00000,1.00000,1,  100.0,  9999.000, -9999.000,   1,1.0000
 10013,'1 ', -1156.288,   559.663,   615.628,  -125.000,1.05500,     0,  1541.532,   0.00100,   0.19300,   0.00000,   0.00000,1.00000,1,  100.0,  9999.000, -9999.000,   1,1.0000
 10014,'1 ',   354.060,   121.162,   133.277,   -50.000,1.05100,     0,   410.000,   0.00190,   0.22840,   0.00000,   0.00000,1.00000,1,  100.0,  9999.000, -9999.000,   1,1.0000
 10015,'1 ',   876.960,   268.076,   300.000,  -100.000,1.04350,     0,  1100.422,   0.00100,   0.19300,   0.00000,   0.00000,1.00000,1,  100.0,  9999.000, -9999.000,   1,1.0000
 10016,'1 ',   105.840,    85.615,    94.176,   -15.000,1.05280,     0,   163.359,   0.00400,   0.13400,   0.00000,   0.00000,1.00000,1,  100.0,  9999.000, -9999.000,   1,1.0000
 10017,'1 ',   273.420,   -45.033,   100.000,   -50.000,1.05280,     0,   410.000,   0.00190,   0.22840,   0.00000,   0.00000,1.00000,1,  100.0,  9999.000, -9999.000,   1,1.0000
 10018,'1 ',   129.780,    64.392,    70.831,   -25.000,1.07350,     0,   270.000,   0.00160,   0.18500,   0.00000,   0.00000,1.00000,1,  100.0,  9999.000, -9999.000,   1,1.0000
 10019,'1 ',   468.720,   -13.374,   175.000,   -50.000,1.05350,     0,   835.000,   0.00190,   0.33900,   0.00000,   0.00000,1.00000,1,  100.0,  9999.000, -9999.000,   1,1.0000
 10020,'1 ',   272.160,    11.021,    90.000,   -50.000,1.04350,     0,   410.000,   0.00190,   0.22840,   0.00000,   0.00000,1.00000,1,  100.0,  9999.000, -9999.000,   1,1.0000
 10021,'1 ',     0.000,   117.468,   129.215,   -10.000,0.96300,     0,   140.962,   0.00140,   0.12000,   0.00000,   0.00000,1.00000,1,  100.0,  9999.000, -9999.000,   1,1.0000
 10022,'1 ',   258.300,   214.239,   235.661,   -40.000,0.92900,     0,   410.000,   0.00190,   0.22840,   0.00000,   0.00000,1.00000,1,  100.0,  9999.000, -9999.000,   1,1.0000
 10023,'1 ',     0.000,   399.146,   439.055,   -50.000,0.98290,     0,   478.969,   0.00140,   0.12000,   0.00000,   0.00000,1.00000,1,  100.0,  9999.000, -9999.000,   1,1.0000
 10024,'1 ',   287.280,    58.344,    90.000,   -45.000,1.05220,     0,   410.000,   0.00190,   0.22840,   0.00000,   0.00000,1.00000,1,  100.0,  9999.000, -9999.000,   1,1.0000
 10025,'1 ',   105.840,    92.873,   102.160,   -15.000,1.00770,     0,   270.000,   0.00160,   0.18500,   0.00000,   0.00000,1.00000,1,  100.0,  9999.000, -9999.000,   1,1.0000
 10026,'1 ',   252.000,    73.613,    80.000,   -50.000,1.05220,     0,   410.000,   0.00190,   0.22840,   0.00000,   0.00000,1.00000,1,  100.0,  9999.000, -9999.000,   1,1.0000
 10027,'1 ',  1512.000,   422.659,   464.923,  -100.000,1.06500,     0,  1911.000,   0.00100,   0.19300,   0.00000,   0.00000,1.00000,1,  100.0,  9999.000, -9999.000,   1,1.0000
 10028,'1 ',  1512.000,   516.052,   567.655,  -100.000,1.06500,     0,  1911.000,   0.00100,   0.19300,   0.00000,   0.00000,1.00000,1,  100.0,  9999.000, -9999.000,   1,1.0000
 10029,'1 ',   598.500,   302.350,   332.581,  -300.000,1.05510,     0,   835.000,   0.00190,   0.33900,   0.00000,   0.00000,1.00000,1,  100.0,  9999.000, -9999.000,   1,1.0000
 10030,'1 ',  2485.980,  1237.746,  1361.486, -1000.000,1.04350,     0,  2911.000,   0.00100,   0.19300,   0.00000,   0.00000,1.00000,1,  100.0,  9999.000, -9999.000,   1,1.0000
 10031,'1 ',   534.240,   165.498,   260.000,  -260.000,1.01500,     0,   835.000,   0.00190,   0.33900,   0.00000,   0.00000,1.00000,1,  100.0,  9999.000, -9999.000,   1,1.0000
 10032,'1 ',   342.720,    58.991,   150.000,  -150.000,1.01000,     0,   512.000,   0.00400,   0.20000,   0.00000,   0.00000,1.00000,1,  100.0,  9999.000, -9999.000,   1,1.0000
 10033,'1 ',   126.000,   135.367,   148.903,   -60.000,1.00800,     0,   270.000,   0.00160,   0.18500,   0.00000,   0.00000,1.00000,1,  100.0,  9999.000, -9999.000,   1,1.0000
 10034,'1 ',   567.000,   344.915,   379.402,  -320.000,1.00000,     0,   835.000,   0.00190,   0.33900,   0.00000,   0.00000,1.00000,1,  100.0,  9999.000, -9999.000,   1,1.0000
 10035,'1 ',   315.000,   205.122,   300.000,  -300.000,1.05000,     0,   410.000,   0.00190,   0.22840,   0.00000,   0.00000,1.00000,1,  100.0,  9999.000, -9999.000,   1,1.0000
 10036,'1 ',   381.780,   367.212,   403.934,  -300.000,1.00000,     0,   635.661,   0.00400,   0.20000,   0.00000,   0.00000,1.00000,1,  100.0,  9999.000, -9999.000,   1,1.0000
 10037,'1 ',   434.700,    82.889,   250.000,  -250.000,1.04000,     0,   835.000,   0.00190,   0.33900,   0.00000,   0.00000,1.00000,1,  100.0,  9999.000, -9999.000,   1,1.0000
 10038,'1 ',   378.000,   204.875,   500.000,  -500.000,1.00000,     0,   512.000,   0.00400,   0.20000,   0.00000,   0.00000,1.00000,1,  100.0,  9999.000, -9999.000,   1,1.0000
 10039,'1 ',   756.000,   368.895,   405.785,  -300.000,1.01650,     0,   911.000,   0.00100,   0.19300,   0.00000,   0.00000,1.00000,1,  100.0,  9999.000, -9999.000,   1,1.0000
 10040,'1 ',   315.000,   306.216,   336.838,  -200.000,1.01000,     0,   527.172,   0.00190,   0.22840,   0.00000,   0.00000,1.00000,1,  100.0,  9999.000, -9999.000,   1,1.0000
 10041,'1 ',   693.000,    78.452,   400.000,  -400.000,1.00000,     0,   911.000,   0.00100,   0.19300,   0.00000,   0.00000,1.00000,1,  100.0,  9999.000, -9999.000,   1,1.0000
 10042,'1 ',   724.223,    19.318,   600.000,  -600.000,1.05000,     0,   911.000,   0.00100,   0.19300,   0.00000,   0.00000,1.00000,1,  100.0,  9999.000, -9999.000,   1,1.0000
 10043,'1 ',   214.200,   112.325,   123.557,    40.000,0.99300,     0,   410.000,   0.00190,   0.22840,   0.00000,   0.00000,1.00000,1,  100.0,  9999.000, -9999.000,   1,1.0000
 10044,'1 ',   105.840,    64.719,    80.000,    40.000,1.01000,     0,   270.000,   0.00160,   0.18500,   0.00000,   0.00000,1.00000,1,  100.0,  9999.000, -9999.000,   1,1.0000
 10045,'1 ',   588.420,   207.566,   210.000,  -210.000,1.05070,     0,   835.000,   0.00190,   0.33900,   0.00000,   0.00000,1.00000,1,  100.0,  9999.000, -9999.000,   1,1.0000
 10046,'1 ',   784.980,   135.229,   280.000,  -280.000,1.05070,     0,   911.000,   0.00100,   0.19300,   0.00000,   0.00000,1.00000,1,  100.0,  9999.000, -9999.000,   1,1.0000
 10047,'1 ',  1524.600,   581.665,   639.831,  -420.000,1.03230,     0,  1958.148,   0.00100,   0.19300,   0.00000,   0.00000,1.00000,1,  100.0,  9999.000, -9999.000,   1,1.0000
 10048,'1 ',   294.840,    73.655,   100.000,  -100.000,1.01450,     0,   410.000,   0.00190,   0.22840,   0.00000,   0.00000,1.00000,1,  100.0,  9999.000, -9999.000,   1,1.0000
 10049,'1 ',   468.720,   241.082,   265.190,  -224.000,1.05070,     0,   835.000,   0.00190,   0.33900,   0.00000,   0.00000,1.00000,1,  100.0,  9999.000, -9999.000,   1,1.0000
 10050,'1 ',   415.800,   478.137,   525.950,     0.000,1.05070,     0,   835.000,   0.00190,   0.33900,   0.00000,   0.00000,1.00000,1,  100.0,  9999.000, -9999.000,   1,1.0000
 10051,'1 ',   233.100,    18.903,   120.000,     0.000,1.05070,     0,   410.000,   0.00190,   0.22840,   0.00000,   0.00000,1.00000,1,  100.0,  9999.000, -9999.000,   1,1.0000
 10052,'1 ',   516.600,   137.926,   224.000,  -224.000,1.02900,     0,   835.000,   0.00190,   0.33900,   0.00000,   0.00000,1.00000,1,  100.0,  9999.000, -9999.000,   1,1.0000
 10053,'1 ',   630.000,   256.012,   281.611,  -200.000,1.05000,     0,   835.000,   0.00190,   0.33900,   0.00000,   0.00000,1.00000,1,  100.0,  9999.000, -9999.000,   1,1.0000
 10054,'1 ',    46.620,    61.221,    67.343,     0.000,1.01450,     0,   125.000,   0.00400,   0.13400,   0.00000,   0.00000,1.00000,1,  100.0,  9999.000, -9999.000,   1,1.0000
 10055,'1 ',   643.767,   108.159,   118.968,     0.000,1.05070,     0,   835.000,   0.00190,   0.33900,   0.00000,   0.00000,1.00000,1,  100.0,  9999.000, -9999.000,   1,1.0000
 10056,'1 ',    56.700,    39.571,    43.527,     0.000,0.99670,     0,   125.000,   0.00400,   0.13400,   0.00000,   0.00000,1.00000,1,  100.0,  9999.000, -9999.000,   1,1.0000
 10057,'1 ',   207.900,   115.338,   126.872,   -90.000,1.02120,     0,   410.000,   0.00190,   0.22840,   0.00000,   0.00000,1.00000,1,  100.0,  9999.000, -9999.000,   1,1.0000
 10058,'1 ',   504.000,   197.345,   217.079,  -150.000,1.01450,     0,   835.000,   0.00190,   0.33900,   0.00000,   0.00000,1.00000,1,  100.0,  9999.000, -9999.000,   1,1.0000
 10059,'1 ',   504.000,   199.949,   219.944,     0.000,1.00170,     0,   835.000,   0.00190,   0.33900,   0.00000,   0.00000,1.00000,1,  100.0,  9999.000, -9999.000,   1,1.0000
 10060,'1 ',   146.160,   119.111,   131.022,     0.000,0.98930,     0,   270.000,   0.00160,   0.18500,   0.00000,   0.00000,1.00000,1,  100.0,  9999.000, -9999.000,   1,1.0000
 10061,'1 ',  1627.920,   523.742,   600.000,  -100.000,1.05070,     0,  2052.115,   0.00100,   0.19300,   0.00000,   0.00000,1.00000,1,  100.0,  9999.000, -9999.000,   1,1.0000
 10062,'1 ',   882.000,   386.805,   425.485,  -125.000,1.05070,     0,  1155.708,   0.00100,   0.19300,   0.00000,   0.00000,1.00000,1,  100.0,  9999.000, -9999.000,   1,1.0000
 10063,'1 ',   696.780,   297.117,   300.000,  -200.000,1.01450,     0,   911.000,   0.00100,   0.19300,   0.00000,   0.00000,1.00000,1,  100.0,  9999.000, -9999.000,   1,1.0000
 10064,'1 ',    -5.250,     7.245,     7.969,    -2.000,0.99450,     0,    25.000,   0.00140,   0.12000,   0.00000,   0.00000,1.00000,1,  100.0,  9999.000, -9999.000,   1,1.0000
 10065,'1 ',   -44.763,    23.741,    26.115,   -17.350,1.00000,     0,   125.000,   0.00400,   0.13400,   0.00000,   0.00000,1.00000,1,  100.0,  9999.000, -9999.000,   1,1.0000
 10066,'1 ',   -33.100,    18.972,    20.868,   -12.800,1.00000,     0,   125.000,   0.00400,   0.13400,   0.00000,   0.00000,1.00000,1,  100.0,  9999.000, -9999.000,   1,1.0000
 10067,'1 ',    63.000,    36.813,    38.000,   -38.000,1.00000,     0,   125.000,   0.00400,   0.13400,   0.00000,   0.00000,1.00000,1,  100.0,  9999.000, -9999.000,   1,1.0000
 10068,'1 ',    10.080,     6.818,     7.500,    -6.000,1.00000,     0,    25.000,   0.00140,   0.12000,   0.00000,   0.00000,1.00000,1,  100.0,  9999.000, -9999.000,   1,1.0000
 0 /End of Generator data, Begin Branch data
     1,      5,'1 ',   0.00100,   0.00600,   0.00000,    0.00,    0.00,    0.00,  0.00000,  0.00000,  0.00000,  0.00000,1,   0.00,   1,1.0000
     2,      6,'1 ',   0.00100,   0.00900,   0.00000,    0.00,    0.00,    0.00,  0.00000,  0.00000,  0.00000,  0.00000,1,   0.00,   1,1.0000
     2,      8,'1 ',   0.00600,   0.02700,   0.05400,    0.00,    0.00,    0.00,  0.00000,  0.00000,  0.00000,  0.00000,1,   0.00,   1,1.0000
     3,      7,'1 ',   0.00000,   0.00300,   0.00000,    0.00,    0.00,    0.00,  0.00000,  0.00000,  0.00000,  0.00000,1,   0.00,   1,1.0000
     3,     19,'1 ',   0.00800,   0.06900,   0.13900,    0.00,    0.00,    0.00,  0.00000,  0.00000,  0.00000,  0.00000,1,   0.00,   1,1.0000
     3,    150,'1 ',   0.00100,   0.00700,   0.00000,    0.00,    0.00,    0.00,  0.00000,  0.00000,  0.00000,  0.00000,1,   0.00,   1,1.0000
     4,     16,'1 ',   0.00200,   0.01900,   1.12700,    0.00,    0.00,    0.00,  0.00000,  0.00000,  0.00000,  0.00000,1,   0.00,   1,1.0000
     5,      9,'1 ',   0.00600,   0.02900,   0.01800,    0.00,    0.00,    0.00,  0.00000,  0.00000,  0.00000,  0.00000,1,   0.00,   1,1.0000
     7,     12,'1 ',   0.00100,   0.00900,   0.07000,    0.00,    0.00,    0.00,  0.00000,  0.00000,  0.00000,  0.00000,1,   0.00,   1,1.0000
     7,    131,'1 ',   0.00100,   0.00700,   0.01400,    0.00,    0.00,    0.00,  0.00000,  0.00000,  0.00000,  0.00000,1,   0.00,   1,1.0000
     8,     11,'1 ',   0.01300,   0.05950,   0.03300,    0.00,    0.00,    0.00,  0.00000,  0.00000,  0.00000,  0.00000,1,   0.00,   1,1.0000
     8,     14,'1 ',   0.01300,   0.04200,   0.08100,    0.00,    0.00,    0.00,  0.00000,  0.00000,  0.00000,  0.00000,1,   0.00,   1,1.0000
     9,     11,'1 ',   0.00600,   0.02700,   0.01300,    0.00,    0.00,    0.00,  0.00000,  0.00000,  0.00000,  0.00000,1,   0.00,   1,1.0000
    11,     13,'1 ',   0.00800,   0.03400,   0.01800,    0.00,    0.00,    0.00,  0.00000,  0.00000,  0.00000,  0.00000,1,   0.00,   1,1.0000
    12,     21,'1 ',   0.00200,   0.01500,   0.11800,    0.00,    0.00,    0.00,  0.00000,  0.00000,  0.00000,  0.00000,1,   0.00,   1,1.0000
    13,     20,'1 ',   0.00600,   0.03400,   0.01600,    0.00,    0.00,    0.00,  0.00000,  0.00000,  0.00000,  0.00000,1,   0.00,   1,1.0000
    14,     15,'1 ',   0.01400,   0.04200,   0.09700,    0.00,    0.00,    0.00,  0.00000,  0.00000,  0.00000,  0.00000,1,   0.00,   1,1.0000
    15,     37,'1 ',   0.06500,   0.24800,   0.12100,    0.00,    0.00,    0.00,  0.00000,  0.00000,  0.00000,  0.00000,1,   0.00,   1,1.0000
    15,     89,'1 ',   0.09900,   0.24800,   0.03500,    0.00,    0.00,    0.00,  0.00000,  0.00000,  0.00000,  0.00000,1,   0.00,   1,1.0000
    15,     90,'1 ',   0.09600,   0.36300,   0.04800,    0.00,    0.00,    0.00,  0.00000,  0.00000,  0.00000,  0.00000,1,   0.00,   1,1.0000
    16,     42,'1 ',   0.00200,   0.02200,   1.28000,    0.00,    0.00,    0.00,  0.00000,  0.00000,  0.00000,  0.00000,1,   0.00,   1,1.0000
    19,     21,'1 ',   0.00200,   0.01800,   0.03600,    0.00,    0.00,    0.00,  0.00000,  0.00000,  0.00000,  0.00000,1,   0.00,   1,1.0000
    19,     87,'1 ',   0.01300,   0.08000,   0.15100,    0.00,    0.00,    0.00,  0.00000,  0.00000,  0.00000,  0.00000,1,   0.00,   1,1.0000
    20,     22,'1 ',   0.01600,   0.03300,   0.01500,    0.00,    0.00,    0.00,  0.00000,  0.00000,  0.00000,  0.00000,1,   0.00,   1,1.0000
    20,     27,'1 ',   0.06900,   0.18600,   0.09800,    0.00,    0.00,    0.00,  0.00000,  0.00000,  0.00000,  0.00000,1,   0.00,   1,1.0000
    21,     24,'1 ',   0.00400,   0.03400,   0.28000,    0.00,    0.00,    0.00,  0.00000,  0.00000,  0.00000,  0.00000,1,   0.00,   1,1.0000
    22,     23,'1 ',   0.05200,   0.11100,   0.05000,    0.00,    0.00,    0.00,  0.00000,  0.00000,  0.00000,  0.00000,1,   0.00,   1,1.0000
    23,     25,'1 ',   0.01900,   0.03900,   0.01800,    0.00,    0.00,    0.00,  0.00000,  0.00000,  0.00000,  0.00000,1,   0.00,   1,1.0000
    24,    319,'1 ',   0.00700,   0.06800,   0.13400,    0.00,    0.00,    0.00,  0.00000,  0.00000,  0.00000,  0.00000,1,   0.00,   1,1.0000
    25,     26,'1 ',   0.03600,   0.07100,   0.03400,    0.00,    0.00,    0.00,  0.00000,  0.00000,  0.00000,  0.00000,1,   0.00,   1,1.0000
    26,     27,'1 ',   0.04500,   0.12000,   0.06500,    0.00,    0.00,    0.00,  0.00000,  0.00000,  0.00000,  0.00000,1,   0.00,   1,1.0000
    26,    320,'1 ',   0.04300,   0.13000,   0.01400,    0.00,    0.00,    0.00,  0.00000,  0.00000,  0.00000,  0.00000,1,   0.00,   1,1.0000
    33,     34,'1 ',   0.00000,   0.06300,   0.00000,    0.00,    0.00,    0.00,  0.00000,  0.00000,  0.00000,  0.00000,1,   0.00,   1,1.0000
    33,     38,'1 ',   0.00250,   0.01200,   0.01300,    0.00,    0.00,    0.00,  0.00000,  0.00000,  0.00000,  0.00000,1,   0.00,   1,1.0000
    33,     40,'1 ',   0.00600,   0.02900,   0.02000,    0.00,    0.00,    0.00,  0.00000,  0.00000,  0.00000,  0.00000,1,   0.00,   1,1.0000
    33,     41,'1 ',   0.00700,   0.04300,   0.02600,    0.00,    0.00,    0.00,  0.00000,  0.00000,  0.00000,  0.00000,1,   0.00,   1,1.0000
    34,     42,'1 ',   0.00100,   0.00800,   0.04200,    0.00,    0.00,    0.00,  0.00000,  0.00000,  0.00000,  0.00000,1,   0.00,   1,1.0000
    35,     72,'1 ',   0.01200,   0.06000,   0.00800,    0.00,    0.00,    0.00,  0.00000,  0.00000,  0.00000,  0.00000,1,   0.00,   1,1.0000
    35,     76,'1 ',   0.00600,   0.01400,   0.00200,    0.00,    0.00,    0.00,  0.00000,  0.00000,  0.00000,  0.00000,1,   0.00,   1,1.0000
    35,     77,'1 ',   0.01000,   0.02900,   0.00300,    0.00,    0.00,    0.00,  0.00000,  0.00000,  0.00000,  0.00000,1,   0.00,   1,1.0000
    36,     88,'1 ',   0.00400,   0.02700,   0.04300,    0.00,    0.00,    0.00,  0.00000,  0.00000,  0.00000,  0.00000,1,   0.00,   1,1.0000
    37,     38,'1 ',   0.00800,   0.04700,   0.00800,    0.00,    0.00,    0.00,  0.00000,  0.00000,  0.00000,  0.00000,1,   0.00,   1,1.0000
    37,     40,'1 ',   0.02200,   0.06400,   0.00700,    0.00,    0.00,    0.00,  0.00000,  0.00000,  0.00000,  0.00000,1,   0.00,   1,1.0000
    37,     41,'1 ',   0.01000,   0.03600,   0.02000,    0.00,    0.00,    0.00,  0.00000,  0.00000,  0.00000,  0.00000,1,   0.00,   1,1.0000
    37,     49,'1 ',   0.01700,   0.08100,   0.04800,    0.00,    0.00,    0.00,  0.00000,  0.00000,  0.00000,  0.00000,1,   0.00,   1,1.0000
    37,     89,'1 ',   0.10200,   0.25400,   0.03300,    0.00,    0.00,    0.00,  0.00000,  0.00000,  0.00000,  0.00000,1,   0.00,   1,1.0000
    37,     90,'1 ',   0.04700,   0.12700,   0.01600,    0.00,    0.00,    0.00,  0.00000,  0.00000,  0.00000,  0.00000,1,   0.00,   1,1.0000
    38,     41,'1 ',   0.00800,   0.03700,   0.02000,    0.00,    0.00,    0.00,  0.00000,  0.00000,  0.00000,  0.00000,1,   0.00,   1,1.0000
    38,     43,'1 ',   0.03200,   0.08700,   0.04000,    0.00,    0.00,    0.00,  0.00000,  0.00000,  0.00000,  0.00000,1,   0.00,   1,1.0000
    39,     42,'1 ',   0.00060,   0.00640,   0.40400,    0.00,    0.00,    0.00,  0.00000,  0.00000,  0.00000,  0.00000,1,   0.00,   1,1.0000
    40,     48,'1 ',   0.02600,   0.15400,   0.02200,    0.00,    0.00,    0.00,  0.00000,  0.00000,  0.00000,  0.00000,1,   0.00,   1,1.0000
    41,     42,'1 ',   0.00000,   0.02900,   0.00000,    0.00,    0.00,    0.00,  0.00000,  0.00000,  0.00000,  0.00000,1,   0.00,   1,1.0000
    41,     49,'1 ',   0.06500,   0.19100,   0.02000,    0.00,    0.00,    0.00,  0.00000,  0.00000,  0.00000,  0.00000,1,   0.00,   1,1.0000
    41,     51,'1 ',   0.03100,   0.08900,   0.03600,    0.00,    0.00,    0.00,  0.00000,  0.00000,  0.00000,  0.00000,1,   0.00,   1,1.0000
    42,     46,'1 ',   0.00200,   0.01400,   0.80600,    0.00,    0.00,    0.00,  0.00000,  0.00000,  0.00000,  0.00000,1,   0.00,   1,1.0000
    43,     44,'1 ',   0.02600,   0.07200,   0.03500,    0.00,    0.00,    0.00,  0.00000,  0.00000,  0.00000,  0.00000,1,   0.00,   1,1.0000
    43,     48,'1 ',   0.09500,   0.26200,   0.03200,    0.00,    0.00,    0.00,  0.00000,  0.00000,  0.00000,  0.00000,1,   0.00,   1,1.0000
    43,     53,'1 ',   0.01300,   0.03900,   0.01600,    0.00,    0.00,    0.00,  0.00000,  0.00000,  0.00000,  0.00000,1,   0.00,   1,1.0000
    44,     47,'1 ',   0.02700,   0.08400,   0.03900,    0.00,    0.00,    0.00,  0.00000,  0.00000,  0.00000,  0.00000,1,   0.00,   1,1.0000
    44,     54,'1 ',   0.02800,   0.08400,   0.03700,    0.00,    0.00,    0.00,  0.00000,  0.00000,  0.00000,  0.00000,1,   0.00,   1,1.0000
    45,     60,'1 ',   0.00700,   0.04100,   0.31200,    0.00,    0.00,    0.00,  0.00000,  0.00000,  0.00000,  0.00000,1,   0.00,   1,1.0000
    45,     74,'1 ',   0.00900,   0.05400,   0.41100,    0.00,    0.00,    0.00,  0.00000,  0.00000,  0.00000,  0.00000,1,   0.00,   1,1.0000
    46,     81,'1 ',   0.00500,   0.04200,   0.69000,    0.00,    0.00,    0.00,  0.00000,  0.00000,  0.00000,  0.00000,1,   0.00,   1,1.0000
    47,     73,'1 ',   0.05200,   0.14500,   0.07300,    0.00,    0.00,    0.00,  0.00000,  0.00000,  0.00000,  0.00000,1,   0.00,   1,1.0000
    47,    113,'1 ',   0.04300,   0.11800,   0.01300,    0.00,    0.00,    0.00,  0.00000,  0.00000,  0.00000,  0.00000,1,   0.00,   1,1.0000
    48,    107,'1 ',   0.02500,   0.06200,   0.00700,    0.00,    0.00,    0.00,  0.00000,  0.00000,  0.00000,  0.00000,1,   0.00,   1,1.0000
    49,     51,'1 ',   0.03100,   0.09400,   0.04300,    0.00,    0.00,    0.00,  0.00000,  0.00000,  0.00000,  0.00000,1,   0.00,   1,1.0000
    51,     52,'1 ',   0.03700,   0.10900,   0.04900,    0.00,    0.00,    0.00,  0.00000,  0.00000,  0.00000,  0.00000,1,   0.00,   1,1.0000
    52,     55,'1 ',   0.02700,   0.08000,   0.03600,    0.00,    0.00,    0.00,  0.00000,  0.00000,  0.00000,  0.00000,1,   0.00,   1,1.0000
    53,     54,'1 ',   0.02500,   0.07300,   0.03500,    0.00,    0.00,    0.00,  0.00000,  0.00000,  0.00000,  0.00000,1,   0.00,   1,1.0000
    54,     55,'1 ',   0.03500,   0.10300,   0.04700,    0.00,    0.00,    0.00,  0.00000,  0.00000,  0.00000,  0.00000,1,   0.00,   1,1.0000
    55,     57,'1 ',   0.06500,   0.16900,   0.08200,    0.00,    0.00,    0.00,  0.00000,  0.00000,  0.00000,  0.00000,1,   0.00,   1,1.0000
    57,     58,'1 ',   0.04600,   0.08000,   0.03600,    0.00,    0.00,    0.00,  0.00000,  0.00000,  0.00000,  0.00000,1,   0.00,   1,1.0000
    57,     63,'1 ',   0.15900,   0.53700,   0.07100,    0.00,    0.00,    0.00,  0.00000,  0.00000,  0.00000,  0.00000,1,   0.00,   1,1.0000
    58,     59,'1 ',   0.00900,   0.02600,   0.00500,    0.00,    0.00,    0.00,  0.00000,  0.00000,  0.00000,  0.00000,1,   0.00,   1,1.0000
    59,     61,'1 ',   0.00200,   0.01300,   0.01500,    0.00,    0.00,    0.00,  0.00000,  0.00000,  0.00000,  0.00000,1,   0.00,   1,1.0000
    60,     62,'1 ',   0.00900,   0.06500,   0.48500,    0.00,    0.00,    0.00,  0.00000,  0.00000,  0.00000,  0.00000,1,   0.00,   1,1.0000
    62,     64,'1 ',   0.01600,   0.10500,   0.20300,    0.00,    0.00,    0.00,  0.00000,  0.00000,  0.00000,  0.00000,1,   0.00,   1,1.0000
...